Version 4
SHEET 1 2308 1540
WIRE 144 -144 16 -144
WIRE 224 -144 144 -144
WIRE 336 -144 224 -144
WIRE 480 -144 336 -144
WIRE 720 -144 640 -144
WIRE 880 -144 784 -144
WIRE 992 -144 880 -144
WIRE 1184 -144 1072 -144
WIRE 1280 -144 1184 -144
WIRE 1344 -144 1280 -144
WIRE 224 -96 224 -144
WIRE 336 -96 336 -144
WIRE 480 -48 480 -144
WIRE 640 -48 640 -144
WIRE 880 -32 880 -144
WIRE 1184 -32 1184 -144
WIRE 1344 -32 1344 -144
WIRE 224 48 224 -32
WIRE 336 48 336 -16
WIRE 336 48 224 48
WIRE 224 128 224 48
WIRE 272 128 224 128
WIRE 480 128 480 32
WIRE 480 128 336 128
WIRE 16 144 16 -144
WIRE 640 144 640 32
WIRE 880 144 880 32
WIRE 880 144 640 144
WIRE 1184 144 1184 32
WIRE 1184 144 880 144
WIRE 1344 144 1344 48
WIRE 1344 144 1184 144
WIRE 1344 176 1344 144
WIRE 480 224 480 128
WIRE 480 272 480 224
WIRE 1088 304 992 304
WIRE 1376 304 1168 304
WIRE 1552 304 1472 304
WIRE 144 352 128 352
WIRE 272 352 224 352
WIRE 304 352 272 352
WIRE 432 352 384 352
WIRE 1376 352 1280 352
WIRE 480 432 480 368
WIRE 592 432 480 432
WIRE 848 432 672 432
WIRE 928 432 848 432
WIRE 1040 432 928 432
WIRE 1280 432 1280 352
WIRE 480 448 480 432
WIRE 272 464 272 352
WIRE 928 480 928 432
WIRE 480 496 480 448
WIRE 1040 512 1040 432
WIRE 640 528 624 528
WIRE 736 528 704 528
WIRE 816 528 736 528
WIRE 864 528 816 528
WIRE 736 544 736 528
WIRE 1280 560 1280 512
WIRE 16 608 16 224
WIRE 272 608 272 528
WIRE 272 608 16 608
WIRE 480 608 480 576
WIRE 480 608 272 608
WIRE 1616 608 1616 560
WIRE 736 624 736 608
WIRE 816 624 816 608
WIRE 816 624 736 624
WIRE 896 624 816 624
WIRE 928 624 928 576
WIRE 928 624 896 624
WIRE 1040 624 1040 576
WIRE 1040 624 928 624
WIRE 480 640 480 608
WIRE 896 640 896 624
WIRE 1616 768 1616 688
WIRE 16 784 16 768
WIRE 192 784 16 784
WIRE 1312 800 1312 768
WIRE 1312 800 624 800
WIRE 192 816 192 784
WIRE 624 848 624 800
WIRE 1312 848 1312 800
WIRE 16 928 16 784
WIRE 192 928 192 896
WIRE 240 928 192 928
WIRE 192 976 192 928
WIRE 384 976 192 976
WIRE 624 976 624 928
WIRE 624 976 576 976
WIRE 192 1008 192 976
WIRE 384 1040 304 1040
WIRE 832 1040 704 1040
WIRE 976 1040 912 1040
WIRE 1168 1040 1040 1040
WIRE 1312 1040 1312 928
WIRE 1312 1040 1168 1040
WIRE 1616 1056 1616 1008
WIRE 624 1072 576 1072
WIRE 624 1152 624 1072
WIRE 704 1152 704 1040
WIRE 704 1152 624 1152
WIRE 784 1152 704 1152
WIRE 832 1152 784 1152
WIRE 1168 1152 1168 1040
WIRE 1168 1152 1088 1152
WIRE 16 1168 16 1008
WIRE 192 1168 192 1072
WIRE 304 1168 304 1040
WIRE 1616 1216 1616 1136
WIRE 1312 1248 1312 1040
WIRE 784 1280 784 1152
WIRE 832 1280 784 1280
WIRE 1136 1280 1088 1280
WIRE 1136 1344 1136 1280
WIRE 1136 1344 1088 1344
WIRE 1136 1392 1136 1344
WIRE 1312 1408 1312 1328
FLAG 1344 176 0
FLAG 480 640 0
FLAG 144 -144 d
FLAG 1280 -144 o
FLAG 480 224 drain
FLAG 480 448 s
FLAG 128 352 GS
IOPIN 128 352 BiDir
FLAG 992 304 0
FLAG 896 640 0
FLAG 624 528 GS
IOPIN 624 528 BiDir
FLAG 848 432 s_blank
FLAG 1280 560 0
FLAG 1552 304 q0
IOPIN 1552 304 BiDir
FLAG 16 1168 0
FLAG 16 768 cc
IOPIN 16 768 BiDir
FLAG 304 1168 0
FLAG 192 1168 0
FLAG 240 928 FB
IOPIN 240 928 BiDir
FLAG 1312 768 o
IOPIN 1312 768 BiDir
FLAG 1136 1392 0
FLAG 1312 1408 0
FLAG 1616 1216 0
FLAG 1616 1008 D_limit
IOPIN 1616 1008 BiDir
FLAG 1616 768 0
FLAG 1616 560 GS
IOPIN 1616 560 BiDir
SYMBOL voltage 16 128 R0
WINDOW 123 0 0 Left 0
WINDOW 39 24 132 Left 0
SYMATTR InstName Vd
SYMATTR Value 400
SYMATTR SpiceLine Rser=1
SYMBOL ind2 464 48 M180
WINDOW 0 36 80 Left 0
WINDOW 3 36 40 Left 0
SYMATTR InstName Lp
SYMATTR Value 25
SYMATTR Type ind
SYMATTR SpiceLine Rser=1
SYMBOL ind2 656 48 R180
WINDOW 0 36 80 Left 0
WINDOW 3 36 40 Left 0
SYMATTR InstName Ls
SYMATTR Value 1
SYMATTR Type ind
SYMATTR SpiceLine Rser=0.01
SYMBOL nmos 432 272 R0
SYMATTR InstName M1
SYMATTR Value STW11NM80
SYMBOL res 320 -112 R0
SYMATTR InstName Rsnub
SYMATTR Value 5k
SYMBOL cap 208 -96 R0
SYMATTR InstName Csnub
SYMATTR Value 10n
SYMBOL diode 336 112 R90
WINDOW 0 0 32 VBottom 0
WINDOW 3 32 32 VTop 0
SYMATTR InstName Dsnub
SYMATTR Value MUR460
SYMBOL schottky 896 32 R180
WINDOW 0 24 72 Left 0
WINDOW 3 24 0 Left 0
SYMATTR InstName DF
SYMATTR Value PDS5100
SYMATTR Description Diode
SYMATTR Type diode
SYMBOL schottky 720 -128 R270
WINDOW 0 32 32 VTop 0
WINDOW 3 0 32 VBottom 0
SYMATTR InstName DR
SYMATTR Value PDS5100
SYMATTR Description Diode
SYMATTR Type diode
SYMBOL ind 976 -128 R270
WINDOW 0 32 56 VTop 0
WINDOW 3 5 56 VBottom 0
SYMATTR InstName L1
SYMATTR Value 200µH
SYMATTR SpiceLine Rser=0.05
SYMBOL polcap 1168 -32 R0
WINDOW 3 24 64 Left 0
SYMATTR InstName Co
SYMATTR Value 330µ
SYMATTR Description Capacitor
SYMATTR Type cap
SYMATTR SpiceLine V=50 Irms=1.255 Rser=0.054 Lser=0 mfg="United Chemi-Con" pn="LXF50VB331M10X30LL" type="Al electrolytic"
SYMBOL res 1328 -48 R0
SYMATTR InstName RL
SYMATTR Value 8.2
SYMBOL res 464 480 R0
SYMATTR InstName Rs
SYMATTR Value 1
SYMBOL res 400 336 R90
WINDOW 0 0 56 VBottom 0
WINDOW 3 32 56 VTop 0
SYMATTR InstName Rg
SYMATTR Value 20
SYMBOL voltage 1184 304 R90
WINDOW 0 39 0 VRight 0
WINDOW 3 -68 -95 VRight 0
WINDOW 123 0 0 Left 0
WINDOW 39 0 0 Left 0
SYMATTR InstName Vclk
SYMATTR Value PULSE(0 1 0 1n 1n 20n {Ts})
SYMBOL npn 864 480 R0
SYMATTR InstName Q1
SYMATTR Value 2N2222
SYMBOL res 688 416 R90
WINDOW 0 0 56 VBottom 0
WINDOW 3 32 56 VTop 0
SYMATTR InstName Rs1
SYMATTR Value 1k
SYMBOL cap 704 512 R90
WINDOW 0 0 32 VBottom 0
WINDOW 3 32 32 VTop 0
SYMATTR InstName C1
SYMATTR Value 0.2n
SYMATTR SpiceLine Rser=100
SYMBOL res 800 512 R0
SYMATTR InstName R3
SYMATTR Value 100
SYMBOL diode 752 608 R180
WINDOW 0 41 -6 Left 0
WINDOW 3 22 -33 Left 0
SYMATTR InstName D1
SYMATTR Value 1N4148
SYMBOL Digital\\srflop 1424 256 R0
SYMATTR InstName A1
SYMBOL bv 1280 416 R0
SYMATTR InstName B1
SYMATTR Value V=v(s_blank)>v(FB)
SYMBOL cap 1024 512 R0
SYMATTR InstName C2
SYMATTR Value 0.1nF
SYMATTR SpiceLine Rser=10
SYMBOL voltage 16 912 R0
WINDOW 123 0 0 Left 0
WINDOW 39 24 132 Left 0
SYMATTR InstName V2
SYMATTR Value 3.3V
SYMATTR SpiceLine Rser=1
SYMBOL Optos\\4N26 480 1040 M0
SYMATTR InstName U1
SYMBOL res 176 800 R0
SYMATTR InstName RB
SYMATTR Value 355
SYMBOL cap 176 1008 R0
SYMATTR InstName CB
SYMATTR Value 47nF
SYMBOL res 608 832 R0
SYMATTR InstName RD
SYMATTR Value 200
SYMBOL Opamps\\LT1431 960 1248 R0
SYMATTR InstName U2
SYMBOL res 1296 832 R0
SYMATTR InstName R1
SYMATTR Value 8.6k
SYMBOL res 1296 1232 R0
SYMATTR InstName R2
SYMATTR Value 1k
SYMBOL res 928 1024 R90
WINDOW 0 0 56 VBottom 0
WINDOW 3 32 56 VTop 0
SYMATTR InstName RF
SYMATTR Value 100
SYMBOL cap 1040 1024 R90
WINDOW 0 0 32 VBottom 0
WINDOW 3 32 32 VTop 0
SYMATTR InstName CF
SYMATTR Value 17n
SYMBOL voltage 1616 1040 R0
WINDOW 123 0 0 Left 0
WINDOW 39 0 0 Left 0
SYMATTR InstName V3
SYMATTR Value PULSE(0 1 0 1n 1n {0.8*Ts/2} {Ts})
SYMBOL bv 1616 592 R0
SYMATTR InstName B_duty_cycle_max_0.5
SYMATTR Value V=(v(q0) & v(D_limit) )*12
SYMBOL cap 256 464 R0
SYMATTR InstName C3
SYMATTR Value 0.1nF
SYMBOL res 240 336 R90
WINDOW 0 0 56 VBottom 0
WINDOW 3 32 56 VTop 0
SYMATTR InstName R4
SYMATTR Value 100
TEXT 512 -120 Left 0 !k Lp Ls 1.0
TEXT 1432 -256 Left 0 !.tran 5m
TEXT 168 736 Left 0 ;RF = 100 Ohm CF = 17nF   R1 = 8.6 kOhm   R2=1kOhm RB = 355 Ohm CB = 47nF RD= 200 Ohm  Kop =0.7
TEXT 1432 -208 Left 0 !.param Ts=20us
